/*--------------------------------*- C++ -*----------------------------------*\
  =========                 |
  \\      /  F ield         | OpenFOAM: The Open Source CFD Toolbox
   \\    /   O peration     | Website:  https://openfoam.org
    \\  /    A nd           | Version:  7
     \\/     M anipulation  |
\*---------------------------------------------------------------------------*/
FoamFile
{
    version     2.0;
    format      ascii;
    class       dictionary;
    object      surfaceFeaturesDict;
}
// * * * * * * * * * * * * * * * * * * * * * * * * * * * * * * * * * * * * * //

surfaces ("NASA_P3_extendedPylon_CDP_OAP_v5.obj");

// Identify a feature when angle between faces < includedAngle
//includedAngle       150;
//includedAngle         70;
includedAngle         15;

subsetFeatures
{
    // Keep nonManifold edges (edges with >2 connected faces)
    nonManifoldEdges       no;

    // Keep open edges (edges with 1 connected face)
    openEdges       yes;
}

// ************************************************************************* //
